%mem=60GB
%NProcShared=16
%chk=G-stretched00
#P bmk/6-31+g ! ASE formatted method and basis
opt(modredun,calcfc)

Gaussian input prepared by ASE

0 1
C                51.2100000000       52.4700000000       54.7600000000
H                50.8800000000       53.4500000000       55.1000000000
H                50.6200000000       52.1600000000       53.9000000000
H                51.1000000000       51.7500000000       55.5700000000
C                52.6600000000       52.5100000000       54.3500000000
O                53.2200000000       51.5100000000       53.9500000000
N                53.2600000000       53.6800000000       54.4600000000
H                52.7800000000       54.5000000000       54.8000000000
C                54.6600000000       53.8100000000       54.0900000000
H                54.7600000000       53.5300000000       53.0400000000
H                55.2500000000       53.1300000000       54.6900000000
C                55.1700000000       55.2200000000       54.2800000000
O                54.4400000000       56.1000000000       54.7100000000
N                56.4500000000       55.4200000000       53.9600000000
H                57.0200000000       54.6600000000       53.6200000000
C                57.0300000000       56.7500000000       54.1200000000
H                58.0700000000       56.7400000000       53.8200000000
H                56.4600000000       57.4400000000       53.5000000000
H                56.9400000000       57.0500000000       55.1600000000


