%mem=60GB
%NProcShared=16
%chk=G-stretched03
#P bmk/6-31+g ! ASE formatted method and basis
opt(modredun,calcfc)

Gaussian input prepared by ASE

0 1
C                 0.0000000000        0.0000000000        0.0000000000
H                 0.0975276907        1.0919767614       -0.0001107897
H                -0.5635675746       -0.3258487078       -0.8899782149
H                -0.5634406658       -0.3256674891        0.8901217853
C                 1.4098490061       -0.7347825726       -0.0000249606
O                 1.4210785178       -1.9828761845       -0.0000169364
N                 2.6373643200       -0.0452032062       -0.0000413144
H                 2.6977755625        0.9652372589       -0.0000321841
C                 3.9407922343       -0.7951358264       -0.0000615044
H                 3.9677540340       -1.4532005413       -0.8818214463
H                 3.9677054216       -1.4533013361        0.8816245536
C                 5.2429921162        0.1078813359       -0.0000076971
O                 5.1535381032        1.3468122393       -0.0000188900
N                 6.4695928692       -0.5780513677        0.0000199472
H                 6.4160948507       -1.5881029307        0.0000748318
C                 7.8856966747       -0.0000000000        0.0000000000
H                 8.4378943891       -0.3207677492       -0.8988558096
H                 7.7859708554        1.0899214539       -0.0003672150
H                 8.4377183736       -0.3201843763        0.8991751901

1 16 F
