%mem=60GB
%NProcShared=16
%chk=G-stretched08
#P bmk/6-31+g ! ASE formatted method and basis
opt(modredun,calcfc)

Gaussian input prepared by ASE

0 1
C                 0.0000000000        0.0000000000        0.0000000000
H                -0.1266125889        1.0855566428       -0.0000699715
H                -0.3920664961       -0.4721743461       -0.9059599118
H                -0.3920661550       -0.4720547426        0.9060240882
C                 1.7514784017       -0.5285542878        0.0000326058
O                 1.8167998647       -1.7663838341        0.0001105911
N                 3.0321510180        0.1971685640       -0.0000136825
H                 3.0422799006        1.2095798476       -0.0000796848
C                 4.4688196830       -0.5168426168        0.0000289942
H                 4.4857471096       -1.1640533868       -0.8860770097
H                 4.4857469560       -1.1639489086        0.8862119903
C                 5.9549738096        0.3464564489       -0.0000233404
O                 5.9089965692        1.5786334104       -0.0001043300
N                 7.2245006083       -0.3825515403        0.0000253739
H                 7.1111418649       -1.3907356494        0.0000933994
C                 8.8856964049       -0.0000000000        0.0000000000
H                 9.2986461603       -0.4393591528       -0.9131090929
H                 8.9490904142        1.0895592032       -0.0000420143
H                 9.2986537081       -0.4392890915        0.9131389071

1 16 F
