%mem=60GB
%NProcShared=16
%chk=G-stretched05
#P bmk/6-31+g ! ASE formatted method and basis
opt(modredun,calcfc)

Gaussian input prepared by ASE

0 1
C                 0.0000000000        0.0000000000        0.0000000000
H                -0.0300879785        1.0948420341       -0.0000930109
H                -0.4940417097       -0.4020329342       -0.8956771789
H                -0.4940187415       -0.4018774627        0.8957598211
C                 1.5473398654       -0.6123920307        0.0000315602
O                 1.6150822223       -1.8567788838        0.0001015848
N                 2.7850686336        0.1123798831       -0.0000109916
H                 2.8121493151        1.1243253514       -0.0000719818
C                 4.1472880638       -0.6158166883        0.0000195016
H                 4.1673940752       -1.2723777909       -0.8817284911
H                 4.1673867765       -1.2723100918        0.8818175089
C                 5.5279458929        0.2571582446       -0.0000169985
O                 5.4748740448        1.4945015940       -0.0000870177
N                 6.7624092288       -0.4651297766        0.0000284485
H                 6.6615868809       -1.4730739208        0.0000904120
C                 8.2856970491       -0.0000000000        0.0000000000
H                 8.7772824732       -0.3840193930       -0.9046298220
H                 8.2840577666        1.0935084919       -0.0000730006
H                 8.7772801763       -0.3838958190        0.9046841780

1 16 F
