%mem=60GB
%NProcShared=16
%chk=G-stretched02
#P bmk/6-31+g ! ASE formatted method and basis
opt(modredun,calcfc)

Gaussian input prepared by ASE

0 1
C                 0.0000000000        0.0000000000        0.0000000000
H                 0.1877584581       -1.0806274729        0.0001994690
H                -0.5980070731        0.2729631218        0.8875579515
H                -0.5980239275        0.2726236797       -0.8876540492
C                 1.3282701434        0.8260364738       -0.0001694590
O                 1.2794328358        2.0734529060       -0.0002513614
N                 2.5671427544        0.1794916082       -0.0002535698
H                 2.6595112551       -0.8286071272       -0.0001718632
C                 3.8380690664        0.9531300149       -0.0004550883
H                 3.8634726829        1.6108278030        0.8820323812
H                 3.8634716659        1.6104008553       -0.8832656191
C                 5.1093339512        0.0355434632       -0.0002686006
O                 5.0035331856       -1.2043296933       -0.0002085553
N                 6.3421746718        0.6839560380       -0.0001888228
H                 6.3426830716        1.6936673642       -0.0001538134
C                 7.6856970197       -0.0000000000        0.0000000000
H                 8.4915657576        0.7608600405        0.0008518891
H                 7.7865198754       -0.6336958741        0.8893328630
H                 7.7875023672       -0.6326249058       -0.8899881192

1 16 F
