%chk=G-forces03
%NProcShared=16
#P bmk/6-31+g force

Gaussian input prepared by ASE

 0,1
 C
 H,1,R2
 H,1,R3,2,A3
 H,1,R4,2,A4,3,D4,0
 C,1,R5,2,A5,3,D5,0
 O,5,R6,1,A6,2,D6,0
 N,5,R7,1,A7,6,D7,0
 H,7,R8,5,A8,1,D8,0
 C,7,R9,5,A9,8,D9,0
 H,9,R10,7,A10,5,D10,0
 H,9,R11,7,A11,10,D11,0
 C,9,R12,7,A12,10,D12,0
 O,12,R13,9,A13,7,D13,0
 N,12,R14,9,A14,13,D14,0
 H,14,R15,12,A15,9,D15,0
 C,14,R16,12,A16,15,D16,0
 H,16,R17,14,A17,12,D17,0
 H,16,R18,14,A18,17,D18,0
 H,16,R19,14,A19,17,D19,0
      Variables:
 R2=1.09583345
 R3=1.09456159
 R4=1.09456184
 R5=1.59085418
 R6=1.24741739
 R7=1.39465342
 R8=1.01226099
 R9=1.49475098
 R10=1.10008407
 R11=1.10008357
 R12=1.57983591
 R13=1.24024769
 R14=1.391334
 R15=1.01208514
 R16=1.52480786
 R17=1.09464534
 R18=1.09405519
 R19=1.09464511
 A3=110.31287958
 A4=110.31273292
 A5=113.41850593
 A6=116.80246305
 A7=124.60169607
 A8=123.00726901
 A9=119.7206372
 A10=108.24627348
 A11=108.24601072
 A12=116.38135391
 A13=121.0749518
 A14=115.2804184
 A15=116.06914886
 A16=129.61385182
 A17=109.1583217
 A18=107.39051104
 A19=109.1580002
 D4=-120.86728498
 D5=119.56630855
 D6=-179.99877903
 D7=179.99988741
 D8=0.
 D9=-179.99920176
 D10=57.52823108
 D11=-115.05259007
 D12=122.47327938
 D13=-0.00152127
 D14=-179.99953736
 D15=-0.00075516
 D16=179.99966466
 D17=-119.286281
 D18=119.28948981
 D19=-121.42112228

 1 2 1.000 3 1.000 4 1.000 5 1.000
 2 1 1.000
 3 1 1.000
 4 1 1.000
 5 1 1.000 6 2.000 7 1.000
 6 5 2.000
 7 5 1.000 8 1.000 9 1.000
 8 7 1.000
 9 7 1.000 10 1.000 11 1.000 12 1.000
 10 9 1.000
 11 9 1.000
 12 9 1.000 13 2.000 14 1.000
 13 12 2.000
 14 12 1.000 15 1.000 16 1.000
 15 14 1.000
 16 14 1.000 17 1.000 18 1.000 19 1.000
 17 16 1.000
 18 16 1.000
 19 16 1.000
 
