%chk=forces
%NProcShared=16
#P bmk/6-31+g force

Gaussian input prepared by ASE

 0,1
 C
 H,1,R2
 H,1,R3,2,A3
 H,1,R4,2,A4,3,D4,0
 C,1,R5,2,A5,3,D5,0
 O,5,R6,1,A6,2,D6,0
 N,5,R7,1,A7,6,D7,0
 H,7,R8,5,A8,1,D8,0
 C,7,R9,5,A9,8,D9,0
 H,9,R10,7,A10,5,D10,0
 H,9,R11,7,A11,10,D11,0
 C,9,R12,7,A12,10,D12,0
 O,12,R13,9,A13,7,D13,0
 N,12,R14,9,A14,13,D14,0
 H,14,R15,12,A15,9,D15,0
 C,14,R16,12,A16,15,D16,0
 H,16,R17,14,A17,12,D17,0
 H,16,R18,14,A18,17,D18,0
 H,16,R19,14,A19,17,D19,0
      Variables:
 R2=1.09583345
 R3=1.09456159
 R4=1.09456184
 R5=1.5908542
 R6=1.24741738
 R7=1.39465343
 R8=1.01226099
 R9=1.494751
 R10=1.10008407
 R11=1.10008357
 R12=1.57983592
 R13=1.24024768
 R14=1.39133401
 R15=1.01208514
 R16=1.52480788
 R17=1.09464535
 R18=1.09405519
 R19=1.0946451
 A3=110.31288159
 A4=110.31273156
 A5=113.41850605
 A6=116.80246211
 A7=124.60169748
 A8=123.00726868
 A9=119.72063745
 A10=108.24627388
 A11=108.24600951
 A12=116.38135523
 A13=121.07495158
 A14=115.2804188
 A15=116.0691484
 A16=129.61385308
 A17=109.15832492
 A18=107.390511
 A19=109.157996
 D4=-120.8672859
 D5=119.56630952
 D6=-179.99877294
 D7=179.99988782
 D8=0.
 D9=-179.99919827
 D10=57.52824667
 D11=-115.05258969
 D12=122.47327621
 D13=-0.00152985
 D14=-179.99953505
 D15=-0.00075828
 D16=179.99965997
 D17=-119.28621613
 D18=119.28949079
 D19=-121.42112215

 1 2 1.000 3 1.000 4 1.000 5 1.000
 2 1 1.000
 3 1 1.000
 4 1 1.000
 5 1 1.000 6 2.000 7 1.000
 6 5 2.000
 7 5 1.000 8 1.000 9 1.000
 8 7 1.000
 9 7 1.000 10 1.000 11 1.000 12 1.000
 10 9 1.000
 11 9 1.000
 12 9 1.000 13 2.000 14 1.000
 13 12 2.000
 14 12 1.000 15 1.000 16 1.000
 15 14 1.000
 16 14 1.000 17 1.000 18 1.000 19 1.000
 17 16 1.000
 18 16 1.000
 19 16 1.000
 
