%chk=forces
%NProcShared=16
#P bmk/6-31+g force

Gaussian input prepared by ASE

 0,1
 C
 H,1,R2
 H,1,R3,2,A3
 H,1,R4,2,A4,3,D4,0
 C,1,R5,2,A5,3,D5,0
 O,5,R6,1,A6,2,D6,0
 N,5,R7,1,A7,6,D7,0
 H,7,R8,5,A8,1,D8,0
 C,7,R9,5,A9,8,D9,0
 H,9,R10,7,A10,5,D10,0
 H,9,R11,7,A11,10,D11,0
 C,9,R12,7,A12,10,D12,0
 O,12,R13,9,A13,7,D13,0
 N,12,R14,9,A14,13,D14,0
 H,14,R15,12,A15,9,D15,0
 C,14,R16,12,A16,15,D16,0
 H,16,R17,14,A17,12,D17,0
 H,16,R18,14,A18,17,D18,0
 H,16,R19,14,A19,17,D19,0
      Variables:
 R2=1.09444798
 R3=1.0929167
 R4=1.09291534
 R5=1.67455324
 R6=1.24440197
 R7=1.42235897
 R8=1.01244029
 R9=1.53669057
 R10=1.09885139
 R11=1.09885157
 R12=1.6328316
 R13=1.23662779
 R14=1.41739375
 R15=1.01332515
 R16=1.59372095
 R17=1.09252317
 R18=1.09277832
 R19=1.09252315
 A3=111.43207332
 A4=111.43251867
 A5=113.72127771
 A6=113.45932707
 A7=129.09515842
 A8=121.94885123
 A9=121.1463179
 A10=107.08635304
 A11=107.08641379
 A12=119.85884426
 A13=119.85672757
 A14=117.09795395
 A15=114.81609433
 A16=133.52979212
 A17=107.33831245
 A18=107.10156297
 A19=107.33835898
 D4=-124.15720357
 D5=117.92181289
 D6=179.99330948
 D7=179.99975272
 D8=0.00023623
 D9=179.99976377
 D10=57.19373186
 D11=-114.38836993
 D12=122.80588337
 D13=-0.00009761
 D14=180.
 D15=-0.00010606
 D16=-179.99989393
 D17=-119.50645148
 D18=119.50611782
 D19=-120.98785172

 1 2 1.000 3 1.000 4 1.000 5 1.000
 2 1 1.000
 3 1 1.000
 4 1 1.000
 5 1 1.000 6 2.000 7 1.000
 6 5 2.000
 7 5 1.000 8 1.000 9 1.000
 8 7 1.000
 9 7 1.000 10 1.000 11 1.000 12 1.000
 10 9 1.000
 11 9 1.000
 12 9 1.000 13 2.000 14 1.000
 13 12 2.000
 14 12 1.000 15 1.000 16 1.000
 15 14 1.000
 16 14 1.000 17 1.000 18 1.000 19 1.000
 17 16 1.000
 18 16 1.000
 19 16 1.000
 
