%chk=G-forces08
%NProcShared=16
#P bmk/6-31+g force

Gaussian input prepared by ASE

 0,1
 C
 H,1,R2
 H,1,R3,2,A3
 H,1,R4,2,A4,3,D4,0
 C,1,R5,2,A5,3,D5,0
 O,5,R6,1,A6,2,D6,0
 N,5,R7,1,A7,6,D7,0
 H,7,R8,5,A8,1,D8,0
 C,7,R9,5,A9,8,D9,0
 H,9,R10,7,A10,5,D10,0
 H,9,R11,7,A11,10,D11,0
 C,9,R12,7,A12,10,D12,0
 O,12,R13,9,A13,7,D13,0
 N,12,R14,9,A14,13,D14,0
 H,14,R15,12,A15,9,D15,0
 C,14,R16,12,A16,15,D16,0
 H,16,R17,14,A17,12,D17,0
 H,16,R18,14,A18,17,D18,0
 H,16,R19,14,A19,17,D19,0
      Variables:
 R2=1.0912202
 R3=1.08989664
 R4=1.0898966
 R5=1.89691656
 R6=1.23580014
 R7=1.45455447
 R8=1.0123822
 R9=1.58798869
 R10=1.09696561
 R11=1.0969656
 R12=1.70960225
 R13=1.23177924
 R14=1.44509738
 R15=1.01451836
 R16=1.69395977
 R17=1.09023524
 R18=1.09086195
 R19=1.09023519
 A3=114.22471506
 A4=114.22464771
 A5=113.42860979
 A6=107.82699562
 A7=134.73460771
 A8=120.11580362
 A9=123.64364799
 A10=106.09337908
 A11=106.09337319
 A12=122.95633728
 A13=118.21597133
 A14=119.37903623
 A15=114.04098239
 A16=137.04616366
 A17=104.94438377
 A18=106.25304159
 A19=104.94413394
 D4=-132.92444678
 D5=113.53784263
 D6=179.99980379
 D7=180.
 D8=-0.0002711
 D9=-179.9997289
 D10=57.37124771
 D11=-114.74242889
 D12=122.62875229
 D13=-0.0003892
 D14=-179.99992065
 D15=-0.00022755
 D16=180.
 D17=-119.707468
 D18=119.70904597
 D19=-120.58204872

 1 2 1.000 3 1.000 4 1.000 5 1.000
 2 1 1.000
 3 1 1.000
 4 1 1.000
 5 1 1.000 6 2.000 7 1.000
 6 5 2.000
 7 5 1.000 8 1.000 9 1.000
 8 7 1.000
 9 7 1.000 10 1.000 11 1.000 12 1.000
 10 9 1.000
 11 9 1.000
 12 9 1.000 13 2.000 14 1.000
 13 12 2.000
 14 12 1.000 15 1.000 16 1.000
 15 14 1.000
 16 14 1.000 17 1.000 18 1.000 19 1.000
 17 16 1.000
 18 16 1.000
 19 16 1.000
 
