%chk=G-forces06
%NProcShared=16
#P bmk/6-31+g force

Gaussian input prepared by ASE

 0,1
 C
 H,1,R2
 H,1,R3,2,A3
 H,1,R4,2,A4,3,D4,0
 C,1,R5,2,A5,3,D5,0
 O,5,R6,1,A6,2,D6,0
 N,5,R7,1,A7,6,D7,0
 H,7,R8,5,A8,1,D8,0
 C,7,R9,5,A9,8,D9,0
 H,9,R10,7,A10,5,D10,0
 H,9,R11,7,A11,10,D11,0
 C,9,R12,7,A12,10,D12,0
 O,12,R13,9,A13,7,D13,0
 N,12,R14,9,A14,13,D14,0
 H,14,R15,12,A15,9,D15,0
 C,14,R16,12,A16,15,D16,0
 H,16,R17,14,A17,12,D17,0
 H,16,R18,14,A18,17,D18,0
 H,16,R19,14,A19,17,D19,0
      Variables:
 R2=1.09359593
 R3=1.09207928
 R4=1.09207958
 R5=1.72671564
 R6=1.24214524
 R7=1.4354656
 R8=1.01243028
 R9=1.55718437
 R10=1.09812107
 R11=1.09812114
 R12=1.66174301
 R13=1.23474659
 R14=1.42925214
 R15=1.01382609
 R16=1.63116909
 R17=1.09158612
 R18=1.09202802
 R19=1.09158593
 A3=112.11332938
 A4=112.11318923
 A5=113.72956078
 A6=111.84745749
 A7=130.94649538
 A8=121.26071091
 A9=122.07376608
 A10=106.63940846
 A11=106.63947946
 A12=121.25590538
 A13=119.24581105
 A14=118.01370081
 A15=114.42913131
 A16=135.04912517
 A17=106.41842912
 A18=106.83268766
 A19=106.41809862
 D4=-126.1929609
 D5=116.90346328
 D6=-179.99831951
 D7=-179.99985954
 D8=-0.00061559
 D9=-179.99974921
 D10=57.19830493
 D11=-114.39816038
 D12=122.80094185
 D13=-0.00044625
 D14=180.
 D15=-0.00009504
 D16=179.99994058
 D17=-119.59531462
 D18=119.5975522
 D19=-120.80506376

 1 2 1.000 3 1.000 4 1.000 5 1.000
 2 1 1.000
 3 1 1.000
 4 1 1.000
 5 1 1.000 6 2.000 7 1.000
 6 5 2.000
 7 5 1.000 8 1.000 9 1.000
 8 7 1.000
 9 7 1.000 10 1.000 11 1.000 12 1.000
 10 9 1.000
 11 9 1.000
 12 9 1.000 13 2.000 14 1.000
 13 12 2.000
 14 12 1.000 15 1.000 16 1.000
 15 14 1.000
 16 14 1.000 17 1.000 18 1.000 19 1.000
 17 16 1.000
 18 16 1.000
 19 16 1.000
 
