%chk=G-forces02
%NProcShared=16
#P bmk/6-31+g force

Gaussian input prepared by ASE

 0,1
 C
 H,1,R2
 H,1,R3,2,A3
 H,1,R4,2,A4,3,D4,0
 C,1,R5,2,A5,3,D5,0
 O,5,R6,1,A6,2,D6,0
 N,5,R7,1,A7,6,D7,0
 H,7,R8,5,A8,1,D8,0
 C,7,R9,5,A9,8,D9,0
 H,9,R10,7,A10,5,D10,0
 H,9,R11,7,A11,10,D11,0
 C,9,R12,7,A12,10,D12,0
 O,12,R13,9,A13,7,D13,0
 N,12,R14,9,A14,13,D14,0
 H,14,R15,12,A15,9,D15,0
 C,14,R16,12,A16,15,D16,0
 H,16,R17,14,A17,12,D17,0
 H,16,R18,14,A18,17,D18,0
 H,16,R19,14,A19,17,D19,0
      Variables:
 R2=1.0961057
 R3=1.09541751
 R4=1.0954196
 R5=1.55821486
 R6=1.2481415
 R7=1.38088771
 R8=1.01215398
 R9=1.47520865
 R10=1.10056431
 R11=1.10056345
 R12=1.55763937
 R13=1.24199481
 R14=1.37829713
 R15=1.01139682
 R16=1.49634969
 R17=1.09566613
 R18=1.0942467
 R19=1.09567389
 A3=109.86148941
 A4=109.86079018
 A5=113.16029001
 A6=118.63767791
 A7=121.90615689
 A8=123.29354502
 A9=119.48693763
 A10=108.93748413
 A11=108.9367633
 A12=114.01367074
 A13=121.40653011
 A14=114.72237235
 A15=116.89063867
 A16=127.42930905
 A17=109.87592808
 A18=107.62889976
 A19=109.87815052
 D4=-119.51619124
 D5=120.24201724
 D6=-179.99425462
 D7=-179.99933387
 D8=0.0004659
 D9=179.99938642
 D10=57.89071839
 D11=-115.77363018
 D12=122.1121548
 D13=-0.00357471
 D14=-179.99849302
 D15=-0.00455229
 D16=-179.99897481
 D17=-119.2670813
 D18=119.2492346
 D19=-121.50008292

 1 2 1.000 3 1.000 4 1.000 5 1.000
 2 1 1.000
 3 1 1.000
 4 1 1.000
 5 1 1.000 6 2.000 7 1.000
 6 5 2.000
 7 5 1.000 8 1.000 9 1.000
 8 7 1.000
 9 7 1.000 10 1.000 11 1.000 12 1.000
 10 9 1.000
 11 9 1.000
 12 9 1.000 13 2.000 14 1.000
 13 12 2.000
 14 12 1.000 15 1.000 16 1.000
 15 14 1.000
 16 14 1.000 17 1.000 18 1.000 19 1.000
 17 16 1.000
 18 16 1.000
 19 16 1.000
 
