%chk=forces
%NProcShared=16
#P bmk/6-31+g force

Gaussian input prepared by ASE

 0,1
 C
 H,1,R2
 H,1,R3,2,A3
 H,1,R4,2,A4,3,D4,0
 C,1,R5,2,A5,3,D5,0
 O,5,R6,1,A6,2,D6,0
 N,5,R7,1,A7,6,D7,0
 H,7,R8,5,A8,1,D8,0
 C,7,R9,5,A9,8,D9,0
 H,9,R10,7,A10,5,D10,0
 H,9,R11,7,A11,10,D11,0
 C,9,R12,7,A12,10,D12,0
 O,12,R13,9,A13,7,D13,0
 N,12,R14,9,A14,13,D14,0
 H,14,R15,12,A15,9,D15,0
 C,14,R16,12,A16,15,D16,0
 H,16,R17,14,A17,12,D17,0
 H,16,R18,14,A18,17,D18,0
 H,16,R19,14,A19,17,D19,0
      Variables:
 R2=1.09599176
 R3=1.09613449
 R4=1.0961363
 R5=1.5349307
 R6=1.24832299
 R7=1.36893651
 R8=1.01210524
 R9=1.45972502
 R10=1.10089169
 R11=1.10089532
 R12=1.5411244
 R13=1.24414868
 R14=1.36464701
 R15=1.00971183
 R16=1.47652456
 R17=1.09314941
 R18=1.09641516
 R19=1.09641469
 A3=109.5145423
 A4=109.51402017
 A5=112.95335595
 A6=120.37466719
 A7=119.25805341
 A8=123.28319113
 A9=119.81173734
 A10=109.60756925
 A11=109.60842665
 A12=111.45407731
 A13=121.79017408
 A14=115.08969286
 A15=118.39719593
 A16=124.03578767
 A17=108.29583468
 A18=110.31657687
 A19=110.32352905
 D4=-118.43316903
 D5=120.78360054
 D6=-179.9920305
 D7=-179.99880233
 D8=-0.00260777
 D9=-179.99921533
 D10=58.32160024
 D11=-116.66569593
 D12=121.66827296
 D13=0.01233871
 D14=179.99931833
 D15=0.00659754
 D16=179.99291779
 D17=-179.95451263
 D18=120.0853628
 D19=-120.08630936

 1 2 1.000 3 1.000 4 1.000 5 1.000
 2 1 1.000
 3 1 1.000
 4 1 1.000
 5 1 1.000 6 2.000 7 1.000
 6 5 2.000
 7 5 1.000 8 1.000 9 1.000
 8 7 1.000
 9 7 1.000 10 1.000 11 1.000 12 1.000
 10 9 1.000
 11 9 1.000
 12 9 1.000 13 2.000 14 1.000
 13 12 2.000
 14 12 1.000 15 1.000 16 1.000
 15 14 1.000
 16 14 1.000 17 1.000 18 1.000 19 1.000
 17 16 1.000
 18 16 1.000
 19 16 1.000
 
