%chk=forces
%NProcShared=16
#P bmk/6-31+g force

Gaussian input prepared by ASE

 0,1
 C
 H,1,R2
 H,1,R3,2,A3
 H,1,R4,2,A4,3,D4,0
 C,1,R5,2,A5,3,D5,0
 O,5,R6,1,A6,2,D6,0
 N,5,R7,1,A7,6,D7,0
 H,7,R8,5,A8,1,D8,0
 C,7,R9,5,A9,8,D9,0
 H,9,R10,7,A10,5,D10,0
 H,9,R11,7,A11,10,D11,0
 C,9,R12,7,A12,10,D12,0
 O,12,R13,9,A13,7,D13,0
 N,12,R14,9,A14,13,D14,0
 H,14,R15,12,A15,9,D15,0
 C,14,R16,12,A16,15,D16,0
 H,16,R17,14,A17,12,D17,0
 H,16,R18,14,A18,17,D18,0
 H,16,R19,14,A19,17,D19,0
      Variables:
 R2=1.09523642
 R3=1.09375735
 R4=1.09375775
 R5=1.62944613
 R6=1.24614146
 R7=1.40861707
 R8=1.01229031
 R9=1.5157214
 R10=1.09951697
 R11=1.09951673
 R12=1.60542429
 R13=1.23842639
 R14=1.40460701
 R15=1.01273464
 R16=1.55758893
 R17=1.09359849
 R18=1.09350904
 R19=1.09359849
 A3=110.82729146
 A4=110.82709244
 A5=113.61171957
 A6=115.11642765
 A7=126.95858165
 A8=122.46185045
 A9=120.32065746
 A10=107.60874638
 A11=107.60862183
 A12=118.34617421
 A13=120.54360361
 A14=116.11372897
 A15=115.3707064
 A16=131.67925922
 A17=108.28834961
 A18=107.29105319
 A19=108.28844824
 D4=-122.37219836
 D5=118.81386732
 D6=-179.99825159
 D7=180.
 D8=-0.00029195
 D9=-179.99937967
 D10=57.28782243
 D11=-114.57388814
 D12=122.71277825
 D13=-0.00099429
 D14=-179.99969117
 D15=-0.00067088
 D16=180.
 D17=-119.39769577
 D18=119.39738332
 D19=-121.20530188

 1 2 1.000 3 1.000 4 1.000 5 1.000
 2 1 1.000
 3 1 1.000
 4 1 1.000
 5 1 1.000 6 2.000 7 1.000
 6 5 2.000
 7 5 1.000 8 1.000 9 1.000
 8 7 1.000
 9 7 1.000 10 1.000 11 1.000 12 1.000
 10 9 1.000
 11 9 1.000
 12 9 1.000 13 2.000 14 1.000
 13 12 2.000
 14 12 1.000 15 1.000 16 1.000
 15 14 1.000
 16 14 1.000 17 1.000 18 1.000 19 1.000
 17 16 1.000
 18 16 1.000
 19 16 1.000
 
